
DATA = ''

MODEL_INIT = '/home/liuq0a/tests/marmousi_onshore_SRVM_new10_1/model_init'

MODEL_TRUE = '/home/liuq0a/tests/marmousi_onshore_SRVM_new10_1/model_true'

PRECOND = ''

SPECFEM_DATA = '/home/liuq0a/tests/marmousi_onshore_SRVM_new10_1/specfem2d-6e042140/DATA'

SPECFEM_BIN = '/home/liuq0a/tests/marmousi_onshore_SRVM_new10_1/specfem2d-6e042140/bin'

